36

C          1.14290       -1.13899       -2.36623
C          2.19910       -0.84288       -1.31162
C          3.23779        0.31481       -1.57046
O          3.86507        0.06696       -2.84018
C          2.60211        1.76131       -1.62473
C          3.50996        3.05741       -1.77176
N          2.77838        4.15902       -1.13677
C          1.49844        3.64839       -0.62374
C          0.36903        4.00100       -1.59359
C          1.67706        2.13016       -0.45343
C          2.38289        1.81190        0.85459
C          2.98834        1.53890        1.97662
C          3.77860        3.39025       -3.23034
C          4.00904        3.67576       -4.48151
C          4.35777        0.06460       -0.50889
C          5.68238        0.75838       -0.65824
O          4.21285       -0.71128        0.45049
H          0.41446       -1.85778       -1.95402
H          1.58354       -1.62083       -3.24480
H          0.59558       -0.25059       -2.67065
H          2.75429       -1.78687       -1.19949
H          1.69275       -0.68932       -0.35043
H          3.17088       -0.09445       -3.50153
H          1.96468        1.74659       -2.52405
H          4.45730        2.94961       -1.24483
H          2.65221        4.93986       -1.77812
H          1.28175        4.13062        0.33694
H          0.52826        3.57941       -2.59148
H          0.27994        5.08767       -1.70392
H         -0.58943        3.62453       -1.21786
H          0.72284        1.59408       -0.49133
H          3.49030        1.29378        2.88447
H          4.20618        3.90855       -5.50264
H          5.77335        1.23639       -1.63205
H          6.47785        0.01082       -0.57594
H          5.79057        1.50279        0.13551
