41

C          4.00519        1.93506       -0.35273
C          3.45187        0.52982       -0.25632
O          4.50154       -0.32942       -0.78045
C          3.06143       -0.09192        1.12845
N          2.53985       -1.42622        0.70022
C          1.10456       -1.52789        1.12162
C          0.88599       -3.04720        0.97817
C          0.04550       -0.79287        0.18423
N         -0.91089        0.15914        0.77067
C         -0.58457        1.58039        0.65124
C          0.85147        2.00864        0.93676
C          0.97989        3.54422        0.95453
O          1.37747        1.57099        2.17668
C          2.09847        0.35111        2.25508
C          1.17387       -0.88551        2.51944
C          1.67866       -1.86093        3.59450
O          1.72485       -1.21078        4.86209
H          4.53514        2.06261       -1.29811
H          4.72715        2.12563        0.44839
H          3.23661        2.70086       -0.32075
H          2.63525        0.43373       -0.98388
H          4.16669       -1.23320       -0.61652
H          4.02433       -0.28841        1.62318
H          3.08421       -2.12357        1.21364
H          1.14786       -3.35747       -0.04602
H         -0.15414       -3.33996        1.14416
H          1.52147       -3.64603        1.64072
H         -0.62312       -1.58300       -0.18443
H          0.50466       -0.40370       -0.72303
H         -1.15306       -0.06108        1.73205
H         -1.26870        2.13537        1.30404
H         -0.83195        1.89586       -0.37087
H          1.44798        1.66698        0.11009
H          0.37095        3.99053        1.74624
H          0.68947        3.97772       -0.00700
H          2.01556        3.84662        1.16823
H          2.70771        0.47825        3.15971
H          0.20810       -0.54137        2.89456
H          2.67345       -2.26086        3.38328
H          0.97475       -2.69605        3.69710
H          2.04646       -1.86437        5.51104
