32

C          1.00191       -0.50595        0.86722
C          2.37184       -0.00662        0.40612
O          2.32674        1.38375        0.05227
C          1.46587        1.73719       -0.93456
N          0.30827        2.18509       -0.59654
C          2.03967        1.84792       -2.39278
C          3.16158        2.92262       -2.37641
C          1.08746        2.10305       -3.58576
C          2.11900        1.29001       -4.38881
N          2.45991        0.62123       -3.14274
C          1.75983       -0.57164       -2.89086
N          0.82833       -1.10488       -3.61701
C          2.16039       -1.47033       -1.73619
C          3.03478       -0.83278       -0.70722
N          4.31696       -0.94525       -0.88858
O          5.05681       -0.23008        0.04334
H          0.63819        0.10625        1.70010
H          1.04007       -1.55090        1.18803
H          0.24579       -0.42619        0.07848
H          3.02255       -0.06975        1.28570
H          0.26418        2.15536        0.43151
H          2.97569        3.65666       -1.58159
H          3.20429        3.50448       -3.30490
H          4.14346        2.47554       -2.19953
H          0.93979        3.13692       -3.90502
H          0.10242        1.62599       -3.49971
H          2.97853        1.85874       -4.76941
H          1.77886        0.67208       -5.22048
H          0.59433       -0.55694       -4.44170
H          2.68992       -2.33571       -2.15944
H          1.25582       -1.87797       -1.27481
H          5.95980       -0.28873       -0.32391
