33

C          1.18470        0.07392        0.38095
C          2.68222       -0.16809        0.12802
C          2.82992       -1.46275       -0.72163
C          4.02259       -2.33929       -0.33404
C          4.14464       -2.49849        1.15179
C          3.89240       -1.49244        1.99836
C          3.51007       -0.16527        1.46111
C          4.62649        0.61757        0.71439
C          3.55096        1.11307       -0.30392
C          4.02998        1.24695       -1.74504
C          5.00595        2.37406       -1.96045
O          4.98894        3.08984       -2.95884
N          3.02322        2.37677        0.25537
C          2.04489        2.94427       -0.35604
N          1.45086        4.06127        0.12518
H          0.71088       -0.81672        0.81026
H          0.66882        0.31016       -0.55592
H          1.00685        0.88875        1.08926
H          2.86073       -1.22843       -1.79145
H          1.93429       -2.08709       -0.59202
H          4.96000       -1.93845       -0.73492
H          3.89406       -3.32881       -0.78960
H          4.44120       -3.46859        1.54070
H          3.96727       -1.62233        3.07214
H          3.05591        0.44599        2.25283
H          5.42462        0.01126        0.26797
H          5.12001        1.39314        1.31215
H          3.18420        1.39662       -2.42260
H          4.54413        0.33452       -2.06903
H          5.81715        2.46240       -1.21768
H          1.58033        2.56764       -1.28451
H          1.96828        4.51093        0.87145
H          1.02793        4.69822       -0.53898
