38

C          1.20696        0.83913       -0.36474
C          2.54823        0.21956        0.36331
C          3.06228       -0.49247        1.83899
C          2.11386       -1.54366        2.51243
C          0.82723       -1.06299        1.88843
C         -0.66723       -1.32579        2.01655
C          1.22891       -1.74416        0.38392
C          2.43552       -1.09006       -0.41486
C          3.78872       -1.73383       -0.67028
N          4.71621       -1.01369       -1.37807
N          4.12890       -2.93750       -0.31477
C          0.82553        0.37935        2.67251
N          0.82156        0.49728        3.96739
O          0.79109        1.48108        1.93826
C          1.82051        2.51546        2.00336
O          3.16965        2.19464        1.58343
C          3.40066        1.46702        0.34041
H          0.31725        0.20301       -0.40908
H          1.46352        1.02563       -1.41932
H          0.84102        1.81695       -0.07066
H          3.30010        0.25750        2.59776
H          4.04301       -0.96895        1.67957
H          2.20895       -1.50776        3.60174
H          2.40826       -2.57155        2.26499
H         -1.01939       -2.26477        1.59254
H         -1.14880       -0.53923        1.40997
H         -1.08019       -1.18339        3.02124
H          0.34013       -1.76416       -0.25615
H          1.42421       -2.82154        0.52254
H          2.08935       -0.96597       -1.45543
H          4.37633       -0.38740       -2.08232
H          5.47616       -1.60197       -1.70116
H          3.38078       -3.40422        0.19378
H          0.82060       -0.41361        4.42571
H          1.85249        2.93447        3.01452
H          1.46853        3.31594        1.34551
H          4.46522        1.22512        0.31058
H          3.19856        2.14545       -0.49569
