28

C          0.97576        0.11177       -0.04050
C          2.48138       -0.02858        0.01183
C          3.18921       -1.25431        0.03805
C          2.55301       -2.63401        0.08179
O          2.97874       -3.48492       -0.98208
C          4.60684       -1.21907        0.07632
C          5.32363       -0.01462        0.08532
O          6.69582        0.05586        0.06194
C          7.40884       -0.99659        0.70260
C          8.88361       -0.69868        0.55225
O          9.74834       -1.57207        0.53108
C          4.62788        1.19644        0.05648
C          5.34793        2.44625        0.05801
C          5.92803        3.49002        0.05806
C          3.22189        1.17934        0.03981
O          2.49603        2.35100        0.04345
H          0.44204       -0.81175       -0.26363
H          0.69764        0.81258       -0.83996
H          0.60148        0.50900        0.91031
H          1.47185       -2.58303        0.03704
H          2.83157       -3.13653        1.01775
H          2.75279       -3.04221       -1.81787
H          5.12222       -2.17181        0.07401
H          7.22586       -1.95630        0.21434
H          7.17101       -1.02673        1.77157
H          9.16690        0.36749        0.54933
H          6.44926        4.42255        0.04760
H          3.10741        3.10651        0.04935
