35

C          1.03080       -0.66298       -0.43961
C          2.45859       -0.22892       -0.14072
N          2.92492        0.82686       -1.03822
C          3.44803        0.32981       -2.25792
O          3.58861       -0.87155       -2.49165
C          3.81148        1.31300       -3.31877
C          4.34021        0.80352       -4.62464
C          3.63031        2.61196       -3.05612
N          3.84334        3.69878       -3.87950
C          3.28333        4.94108       -3.34510
C          2.96826        4.55769       -1.90477
O          2.61691        5.33914       -1.03412
C          3.11224        3.06091       -1.77752
C          2.76657        2.21693       -0.78338
C          2.19721        2.79405        0.53018
C          0.67707        2.97723        0.47854
C          2.62779        2.22273        1.88637
H          0.67496       -1.35325        0.33094
H          0.97120       -1.17378       -1.40593
H          0.34361        0.18203       -0.48505
H          3.10334       -1.11106       -0.25185
H          2.58826        0.04245        0.89769
H          4.47026       -0.28306       -4.63519
H          5.31999        1.24326       -4.83840
H          3.65562        1.05834       -5.43862
H          3.84035        3.54295       -4.88239
H          2.35344        5.20034       -3.85960
H          4.01340        5.74992       -3.39008
H          2.60499        3.80752        0.61062
H          0.14837        2.02680        0.41060
H          0.38072        3.59284       -0.37761
H          0.31802        3.48176        1.38281
H          2.03292        1.35851        2.19239
H          2.45812        2.97190        2.67091
H          3.69278        1.97306        1.90007
