39

C          1.05791       -0.02836       -0.71959
C          2.42051       -0.07972       -0.02086
C          2.56470       -1.10907        1.11049
O          1.35554       -1.72389        1.54471
C          0.48592       -0.91006        2.30555
C          1.07063        0.01182        3.35918
N          1.68149       -0.42058        4.41462
O          0.90520        1.33381        3.26557
C          1.26183        2.08038        2.08661
C          2.73692        2.01864        1.65343
C          2.98758        1.32434        0.29166
C          3.76855        1.70763        2.77135
N          3.53431        2.27413        4.00295
N          4.79799        0.99670        2.45672
C          5.82006        0.74041        3.48247
C          6.96671       -0.09147        2.88492
N          7.60688        0.58698        1.75577
H          0.69876       -1.03463       -0.95751
H          1.13340        0.52423       -1.66242
H          0.28896        0.47399       -0.13624
H          3.09206       -0.44965       -0.81299
H          3.12074       -0.74715        1.97239
H          3.18316       -1.93034        0.72678
H         -0.15574       -1.61277        2.85066
H         -0.20100       -0.36544        1.65712
H          1.72629       -1.45028        4.37733
H          1.07358        3.12163        2.38577
H          0.54630        1.90982        1.28053
H          2.99158        3.06825        1.42098
H          4.07223        1.27878        0.12290
H          2.62733        2.00751       -0.49147
H          2.55100        2.29569        4.27093
H          4.06499        1.86609        4.76278
H          5.38807        0.17399        4.31625
H          6.22227        1.68567        3.86685
H          6.57939       -1.05795        2.54359
H          7.71913       -0.28566        3.65606
H          6.86205        0.82706        1.09701
H          8.22646       -0.06289        1.27806
