45

C          2.26941        0.45417        1.54227
C          1.88402        0.39386        0.07251
C          0.50410        1.03606       -0.11187
N          2.79682        0.98872       -0.89888
C          4.26550        0.89535       -0.76941
C          4.93334       -0.40291       -1.44547
N          6.43153       -0.31690       -1.37636
C          4.60370       -1.90390       -0.99597
C          4.90182       -2.17952        0.48868
C          3.22932       -2.45822       -1.38724
N          5.55831       -2.79309       -1.74511
C          4.86132        2.23637       -1.47937
C          4.54100        3.54467       -0.69196
O          5.01018        4.72169       -1.38453
C          4.42061        4.80602       -2.68077
C          4.84180        3.59653       -3.51638
N          4.39950        2.34326       -2.89342
H          1.44536        0.11431        2.17387
H          2.53758        1.47032        1.85311
H          3.11217       -0.20513        1.76351
H          1.73763       -0.63977       -0.19436
H          0.50258        2.08753        0.19263
H         -0.24889        0.50761        0.48653
H          0.17423        0.98635       -1.15657
H          2.52986        1.95782       -1.07721
H          4.57080        0.95303        0.28179
H          4.68226       -0.36151       -2.51303
H          6.71109       -0.18219       -0.40437
H          6.77872        0.47632       -1.90553
H          4.65460       -1.32579        1.11542
H          5.96477       -2.38522        0.66453
H          4.34488       -3.04741        0.85758
H          2.47261       -2.28545       -0.62570
H          3.25582       -3.55516       -1.47198
H          2.88560       -2.07476       -2.35294
H          6.46038       -2.29984       -1.68923
H          5.32886       -2.73642       -2.73760
H          5.95563        2.18776       -1.49790
H          5.05480        3.52590        0.27451
H          3.47321        3.68026       -0.49533
H          4.76809        5.72845       -3.15849
H          3.32966        4.87038       -2.59025
H          5.93372        3.58334       -3.62626
H          4.40841        3.66944       -4.51940
H          4.76017        1.55651       -3.43084
