34

C          0.69736        0.00176        0.72272
C          2.16041        0.03454        0.26150
O          2.66315        1.37865        0.28651
C          1.90961        2.32034       -0.45479
C          2.18703        2.33534       -1.94891
C          2.67158        1.08763       -2.68935
O          3.34049        0.08550       -1.94544
C          2.61937       -0.74206       -1.01087
C          1.71913       -1.91380       -1.59573
O          0.46119       -2.03600       -0.89533
C          1.36912       -1.80309       -3.10039
N          0.81765       -0.48074       -3.39237
C          1.82067        0.38462       -3.76842
N          2.21616        0.33048       -5.00689
C          2.45540       -3.27155       -1.43489
N          1.64931       -4.35938       -1.21970
O          3.66309       -3.43862       -1.56742
H          0.52779        0.74479        1.50663
H          0.43093       -0.96731        1.14272
H          0.01249        0.24245       -0.10038
H          2.69290       -0.45045        1.08840
H          2.19088        3.30269       -0.04650
H          0.83847        2.24874       -0.24927
H          3.02641        3.04590       -2.03000
H          1.36818        2.84057       -2.47432
H          3.48071        1.51594       -3.30387
H          3.48880       -1.27701       -0.60622
H         -0.17976       -2.47867       -1.48080
H          0.61400       -2.55430       -3.37177
H          2.24829       -2.03620       -3.72568
H          0.25345       -0.15536       -2.61126
H          3.10403        0.82413       -5.13117
H          0.79715       -4.22146       -0.68956
H          2.15588       -5.21544       -1.02040
