35

C          3.23863       -1.34534       -3.34144
C          2.95229        0.12837       -3.09310
N          4.21558        0.78404       -2.64580
C          3.80361        1.57096       -1.69403
C          4.35136        2.96233       -1.65918
C          3.51714        3.87196       -2.56911
N          3.73851        5.14778       -2.62318
N          2.52109        3.37653       -3.39400
C          1.20601        3.07762       -2.79473
C          0.11557        3.75360       -3.66572
O          0.41545        5.12347       -3.93400
C          0.83921        1.58296       -2.66161
C          1.83802        0.54989       -2.06571
C          1.06089       -0.68060       -1.50334
N          0.02653       -0.36784       -0.50495
N          2.63795        1.23326       -1.03001
H          4.20920       -1.47108       -3.83587
H          2.47535       -1.76824       -4.00303
H          3.27720       -1.93697       -2.42447
H          2.72445        0.57017       -4.07270
H          5.36784        2.95596       -2.06092
H          4.37773        3.35960       -0.64259
H          4.50631        5.39107       -1.98483
H          2.37281        4.09640       -4.10513
H          1.16675        3.55127       -1.80444
H         -0.86235        3.70366       -3.17602
H          0.03130        3.25355       -4.63874
H          0.85660        5.49967       -3.14868
H          0.48196        1.18997       -3.62286
H         -0.05183        1.60089       -2.01962
H          1.74686       -1.38585       -1.03482
H          0.56937       -1.19235       -2.34012
H          0.45496        0.06175        0.31132
H         -0.40871       -1.23356       -0.18232
H          2.85545        0.57596       -0.28375
