32

C          1.15750        0.26444        0.91456
C          2.70621        0.30817        0.99703
C          3.18161        1.79358        0.88523
C          4.61107        1.90953        0.21253
C          4.95194        0.95858       -1.07414
O          3.50178        0.72176       -1.06559
C          3.21910       -0.43377       -0.22916
C          4.51797       -1.26692       -0.34466
C          5.14348       -0.63215       -1.62377
C          4.05265       -0.59185       -2.68153
N          3.14771       -0.55842       -3.55903
C          6.45681       -1.08282       -2.11390
C          6.90162       -2.35730       -2.41202
N          6.18449       -3.48876       -2.29931
N          8.16208       -2.48087       -2.88155
C          8.70756       -1.29253       -2.99570
S          7.72185        0.02460       -2.51595
H          0.67910        1.03855        1.52772
H          0.78714       -0.71763        1.23564
H          0.80410        0.40926       -0.11565
H          3.03801       -0.14565        1.93090
H          3.14288        2.30545        1.85168
H          2.47338        2.35125        0.24580
H          5.35452        1.81187        1.01345
H          4.71008        2.94587       -0.14865
H          5.79404        0.68473       -0.40789
H          2.41431       -1.01943       -0.69325
H          4.29428       -2.33319       -0.45031
H          5.15584       -1.15047        0.54041
H          5.17938       -3.48251       -2.45094
H          6.61977       -4.30102       -2.72715
H          9.70584       -1.14101       -3.38412
