37

C          3.57955        3.11464        1.48787
C          3.78877        1.81214        0.73773
O          4.21817        0.80953        1.66126
C          4.48845       -0.47418        1.06998
C          5.61372       -0.41126        0.02845
C          4.81841       -1.47999        2.19516
O          5.03444       -2.81267        1.68991
C          4.35620       -3.65325        2.64467
O          4.23979       -2.88907        3.86015
C          3.70085       -1.70789        3.22722
C          2.40914       -2.31402        2.62477
C          1.27290       -2.28326        3.65043
O          0.07896       -2.83017        3.10615
C          2.89739       -3.72500        2.18298
C          2.19157       -4.93909        2.77677
C          6.06839       -0.98517        2.94161
O          7.16324       -1.54422        2.92978
H          3.35138        3.92857        0.79259
H          4.47628        3.38127        2.05731
H          2.75748        3.02436        2.20427
H          4.55281        1.98354       -0.02489
H          2.85731        1.49825        0.25532
H          3.58771       -0.80790        0.54163
H          6.51087        0.06315        0.43833
H          5.31313        0.18356       -0.84004
H          5.87070       -1.40656       -0.34470
H          4.87156       -4.60754        2.78216
H          3.55009       -0.89862        3.94379
H          2.07098       -1.75363        1.74714
H          1.05649       -1.24971        3.94394
H          1.52193       -2.83342        4.56246
H         -0.12003       -2.36910        2.27385
H          2.85190       -3.80256        1.08950
H          2.19701       -4.93440        3.87087
H          2.69106       -5.86031        2.45416
H          1.15602       -5.00253        2.42926
H          5.94280       -0.04132        3.49541
