39

C          0.54807       -0.42461       -0.43909
C          1.92324        0.11633       -0.06018
C          2.15365        1.49798       -0.69421
C          3.48625        2.06097       -0.21031
C          4.61477        1.06726       -0.49175
C          5.92969        1.36214        0.25598
O          5.62341        1.69381        1.61249
C          6.70406        0.01817        0.08339
N          7.61217       -0.56925        1.10618
C          7.32664       -0.22210        2.49749
C          7.44941       -2.01886        0.90578
C          5.94536       -2.21128        0.70130
C          5.59325       -1.04256       -0.22042
C          5.64564       -1.57830       -1.66073
O          6.45329       -1.24639       -2.52167
N          4.33228       -0.29631        0.02719
C          3.07387       -0.84549       -0.45880
H         -0.23698        0.24627       -0.07104
H          0.38023       -1.40699        0.01320
H          0.43259       -0.51652       -1.52314
H          1.93268        0.23177        1.03252
H          1.34219        2.18859       -0.43163
H          2.16014        1.41552       -1.79058
H          3.39317        2.28632        0.85563
H          3.69339        3.01219       -0.71406
H          4.79450        1.03489       -1.57305
H          6.48337        2.20085       -0.17830
H          4.96416        1.02940        1.89020
H          7.32072        0.15572       -0.81462
H          7.57453        0.82311        2.70280
H          7.95811       -0.81168        3.17275
H          6.28913       -0.41615        2.79090
H          7.85673       -2.62002        1.72416
H          8.00048       -2.30661        0.00012
H          5.41404       -2.15292        1.65736
H          5.73859       -3.19622        0.26798
H          4.88877       -2.34941       -1.89551
H          2.89086       -1.82854       -0.01955
H          3.06938       -0.95411       -1.55311
