44

C          4.24714       -0.89294       -1.17780
C          3.40171       -1.51194       -0.07199
C          3.21933       -0.53495        1.08092
C          4.39826       -0.37160        2.15767
C          4.89445       -1.76134        2.67842
C          3.74452       -2.63886        3.22409
O          2.46650       -1.97226        3.24226
C          2.25885       -1.12429        4.33962
C          2.27119        0.46552        4.20074
N          1.19015        0.90191        5.12183
C          2.12129        1.37548        2.91684
C          3.55574        1.83174        2.49177
N          4.40123        0.83001        3.15026
C          3.71587        0.88203        4.50690
C          4.33774        0.50088        5.85275
N          6.01443       -1.64999        3.64187
C          7.24921       -1.18570        2.99835
H          4.19110       -1.52757       -2.07877
H          5.29466       -0.81516       -0.88033
H          3.87604        0.09148       -1.44842
H          3.78892       -2.47754        0.24609
H          2.39494       -1.70975       -0.49498
H          2.27535       -0.80171        1.54772
H          3.00674        0.42279        0.59559
H          5.21580       -0.04016        1.50166
H          5.30556       -2.32198        1.82425
H          3.97112       -3.08838        4.19887
H          3.62639       -3.48799        2.55111
H          2.93249       -1.43346        5.14207
H          1.28610       -1.44221        4.73798
H          0.32254        0.46286        4.78873
H          1.00272        1.90823        5.00226
H          1.61990        2.32973        3.15864
H          1.50530        0.94372        2.13461
H          3.79532        2.82582        2.89417
H          3.74513        1.96457        1.42259
H          3.66719        1.96919        4.72800
H          4.41610       -0.56787        6.06728
H          3.72417        0.93620        6.64946
H          5.33297        0.94123        5.96438
H          5.74140       -0.92963        4.30753
H          7.11183       -0.76620        1.99638
H          7.95968       -2.01191        2.91351
H          7.71065       -0.40653        3.61317
