26

C          3.71049        0.04626        0.88176
C          2.47383        0.07749       -0.04317
C          1.59785       -1.10253        0.34494
C          0.84643       -2.11474        0.67786
C          1.72984        1.34285        0.20641
C          1.12017        2.34589        0.44917
C          2.87832       -0.03037       -1.57831
N          3.75793        1.08062       -1.98169
C          5.10533        0.88128       -2.03728
N          5.71436       -0.25315       -2.07308
C          4.90171       -1.36643       -2.15423
C          3.56819       -1.34042       -1.97420
S          2.55343       -2.69702       -2.37849
N          3.51110       -4.01359       -2.05496
C          4.79459       -3.91636       -2.15632
C          5.55346       -2.67171       -2.47062
O          6.70216       -2.80402       -2.87514
H          3.41860        0.09769        1.93848
H          4.38015        0.89379        0.69868
H          4.28775       -0.87722        0.75849
H          0.23586       -2.94682        0.94529
H          0.56288        3.22201        0.70197
H          1.96668        0.07929       -2.18341
H          3.43367        2.01007       -1.73138
H          5.68475        1.82089       -2.03901
H          5.42553       -4.80392       -1.99227
