36

C          0.90780       -0.29666       -0.36452
C          2.37810        0.00390       -0.12626
C          2.71838        1.49020       -0.28794
C          4.26023        1.47719       -0.40870
C          4.77571        2.80486       -0.98111
C          4.92719        1.23877        0.96565
O          4.50177        2.28450        1.84967
C          4.90661        2.08676        3.19337
C          4.45154        3.23061        4.09562
C          3.09995        3.84897        3.84856
O          5.14542        3.60024        5.04784
C          4.45248        0.33283       -1.43265
C          5.33725       -0.92484       -1.33510
N          4.25335       -1.62633       -0.62592
C          3.27838       -0.65511       -1.17122
H          0.27493        0.37019        0.22927
H          0.68159       -1.32516       -0.06429
H          0.63048       -0.18504       -1.41708
H          2.62056       -0.31597        0.89362
H          2.34393        2.09851        0.54036
H          2.27296        1.88000       -1.21489
H          4.43007        3.65729       -0.38507
H          4.44579        2.96484       -2.01284
H          5.87280        2.82327       -0.98496
H          6.01979        1.26305        0.87993
H          4.65766        0.27338        1.40180
H          5.99968        2.03451        3.23667
H          4.47441        1.16029        3.58752
H          2.55224        3.31866        3.06714
H          3.23222        4.89119        3.54664
H          2.51012        3.80046        4.76816
H          4.42517        0.72647       -2.46004
H          6.28344       -0.82920       -0.79999
H          5.55387       -1.37342       -2.31887
H          4.35753       -1.62254        0.38597
H          2.78843       -0.99543       -2.08478
